[TITLE]
;;Project Title/Notes

[OPTIONS]
;;Option             Value
FLOW_UNITS           CFS
INFILTRATION         GREEN_AMPT
FLOW_ROUTING         DYNWAVE
LINK_OFFSETS         DEPTH
MIN_SLOPE            0
ALLOW_PONDING        NO
SKIP_STEADY_STATE    NO

START_DATE           07/16/2016
START_TIME           00:00:00
REPORT_START_DATE    07/16/2016
REPORT_START_TIME    00:00:00
END_DATE             07/17/2016
END_TIME             00:00:00
SWEEP_START          01/01
SWEEP_END            12/31
DRY_DAYS             0
REPORT_STEP          00:01:00
WET_STEP             00:30:00
DRY_STEP             01:00:00
ROUTING_STEP         0:00:15 

INERTIAL_DAMPING     PARTIAL
NORMAL_FLOW_LIMITED  BOTH
FORCE_MAIN_EQUATION  H-W
VARIABLE_STEP        0.75
LENGTHENING_STEP     0
MIN_SURFAREA         12.557
MAX_TRIALS           8
HEAD_TOLERANCE       0.005
SYS_FLOW_TOL         5
LAT_FLOW_TOL         5

[EVAPORATION]
;;Evap Data      Parameters
;;-------------- ----------------
CONSTANT         0.0
DRY_ONLY         NO

[RAINGAGES]
;;Gage           Format    Interval SCF      Source    
;;-------------- --------- ------ ------ ----------
1                INTENSITY 0:05     1.0      TIMESERIES 2yr-24hr        

[SUBCATCHMENTS]
;;Subcatchment   Rain Gage        Outlet           Area     %Imperv  Width    %Slope   CurbLen  Snow Pack       
;;-------------- ---------------- ---------------- -------- -------- -------- -------- -------- ----------------
1                1                J1               3.6      98.37    3.6      0.03     0                        
2                1                J1               4.36     64.9616  162.616  2.319    0                        
3                1                J9               11.11    80.195   233.733  6.561    0                        
4                1                J9               9.88     87.215   125.858  2.096    0                        
5                1                J8               27.32    98.37    264.12   2        0                        
6                1                J12              5.70     98.37    227.03   2        0                        
7                1                J20              16.70    71.3577  192.719  1.974    0                        
8                1                J31              35.04    81.939   174.345  2.44     0                        
9                1                J42              67.27    63.1705  139.49   2.501    0                        
10               1                J44              43.45    52.073   141.897  2.69     0                        
11               1                J56              65.87    64.8079  127.365  2.963    0                        
12               1                J27              37.89    83.8961  123.213  2.803    0                        
13               1                J30              16.17    77.9615  117.112  3.537    0                        
14               1                J51              9.30     42.6531  179.809  6.581    0                        
15               1                J52              4.67     17.159   243.78   6.814    0                        
16               1                J51              11.81    25.8308  387.685  5.731    0                        
17               1                J48              9.16     78.2603  180.047  2.388    0                        
18               1                J54              37.32    47.8719  268.409  5.84     0                        
19               1                J55              25.13    37.5144  270.834  0.45     0                        
20               1                J71              38.45    60.3478  192.904  3.92     0                        
21               1                J70              30.39    33.7108  231.106  3.163    0                        
22               1                J64              9.29     49.0837  194.306  6.945    0                        
23               1                J62              18.27    68.0561  117.775  2.58     0                        
24               1                J55              16.76    56.8172  207.517  3.39     0                        
25               1                J73              7.53     47.8097  141.861  4.804    0                        
26               1                J73              11.81    48.0064  236.587  3.782    0                        
27               1                J69              35.39    56.4453  252.734  3.844    0                        
28               1                O1               11.16    34.2689  193.117  1.326    0                        

[SUBAREAS]
;;Subcatchment   N-Imperv   N-Perv     S-Imperv   S-Perv     PctZero    RouteTo    PctRouted 
;;-------------- ---------- ---------- ---------- ---------- ---------- ---------- ----------
1                0.011      0.24       0.07       0.2        25         OUTLET    
2                0.011      0.24       0.07       0.2        25         OUTLET    
3                0.011      0.24       0.07       0.2        25         OUTLET    
4                0.011      0.24       0.07       0.2        25         OUTLET    
5                0.011      0.24       0.07       0.2        25         OUTLET    
6                0.011      0.24       0.07       0.2        25         OUTLET    
7                0.011      0.4        0.07       0.2        25         OUTLET    
8                0.011      0.24       0.07       0.2        25         OUTLET    
9                0.011      0.24       0.07       0.2        25         OUTLET    
10               0.011      0.4        0.07       0.2        25         OUTLET    
11               0.011      0.4        0.07       0.2        25         OUTLET    
12               0.011      0.24       0.07       0.2        25         OUTLET    
13               0.011      0.24       0.07       0.2        25         OUTLET    
14               0.011      0.4        0.07       0.2        25         OUTLET    
15               0.011      0.24       0.07       0.2        25         OUTLET    
16               0.011      0.24       0.07       0.2        25         OUTLET    
17               0.011      0.24       0.07       0.2        25         OUTLET    
18               0.011      0.32       0.07       0.2        25         OUTLET    
19               0.011      0.32       0.07       0.2        25         OUTLET    
20               0.011      0.31       0.07       0.2        25         OUTLET    
21               0.011      0.32       0.07       0.2        25         OUTLET    
22               0.011      0.32       0.07       0.2        25         OUTLET    
23               0.011      0.32       0.07       0.2        25         OUTLET    
24               0.011      0.24       0.07       0.2        25         OUTLET    
25               0.011      0.24       0.07       0.2        25         OUTLET    
26               0.011      0.24       0.07       0.2        25         OUTLET    
27               0.011      0.24       0.07       0.2        25         OUTLET    
28               0.011      0.4        0.07       0.2        25         OUTLET    

[INFILTRATION]
;;Subcatchment   Suction    HydCon     IMDmax    
;;-------------- ---------- ---------- ----------
1                4.33       0.43       0.263     
2                4.33       0.43       0.263     
3                4.33       0.43       0.263     
4                4.3        0.43       0.263     
5                4.3        0.43       0.263     
6                4.3        0.43       0.263     
7                4.33       0.43       0.263     
8                4.33       0.43       0.263     
9                4.3        0.43       0.263     
10               4.3        0.43       0.263     
11               4.3        0.43       0.263     
12               4.3        0.43       0.263     
13               4.3        0.43       0.263     
14               4.3        0.43       0.263     
15               4.3        0.43       0.263     
16               4.3        0.43       0.263     
17               4.3        0.43       0.263     
18               4.3        0.43       0.263     
19               4.3        0.43       0.263     
20               4.3        0.43       0.263     
21               4.3        0.43       0.263     
22               4.3        0.43       0.263     
23               4.77628    0.38582    0.25065   
24               4.33       0.43       0.263     
25               4.3        0.43       0.263     
26               7.41884    0.12425    0.17755   
27               5.02365    0.36134    0.24381   
28               4.33       0.43       0.263     

[LID_CONTROLS]
;;               Type/Layer Parameters
;;-------------- ---------- ----------
RWHS_50          RB
RWHS_50          STORAGE    34         0.75       0.5        0         
RWHS_50          DRAIN      0.49       0.5        0.75       24        

RWHS_200         RB
RWHS_200         STORAGE    56         0.75       0.5        0         
RWHS_200         DRAIN      0.78       0.5        0.75       48        

BIOR             BC
BIOR             SURFACE    4          0.2        0.1        1.0        5         
BIOR             SOIL       36         0.3        0.2        0.1        2          10.0       3.5       
BIOR             STORAGE    6          0.75       0.5        0         
BIOR             DRAIN      0          0.5        6          6         

[LID_USAGE]
;;Subcatchment   LID Process      Number  Area       Width      InitSatur  FromImprv  ToPerv     
;;-------------- ---------------- ------- ---------- ---------- ---------- ---------- ---------- 
9                BIOR             71      435.6      0          0          25         1         
10               BIOR             69      435.6      0          0          25         1         
11               BIOR             101     435.6      0          0          25         1         
12               BIOR             6       435.6      0          0          25         1         
13               BIOR             18      435.6      0          0          25         1         
14               BIOR             6       435.6      0          0          25         1         
15               BIOR             3       435.6      0          0          25         1         
16               BIOR             1       435.6      0          0          25         1         
17               BIOR             3       435.6      0          0          25         1         
18               BIOR             24      435.6      0          0          25         1         
19               BIOR             17      435.6      0          0          25         1         
20               BIOR             33      435.6      0          0          25         1         
21               BIOR             55      435.6      0          0          25         1         
22               BIOR             20      435.6      0          0          25         1         
23               BIOR             8       435.6      0          0          25         1         
24               BIOR             9       435.6      0          0          25         1         
25               BIOR             5       435.6      0          0          25         1         
26               BIOR             2       435.6      0          0          25         1         
27               BIOR             11      435.6      0          0          25         1         
28               BIOR             2       435.6      0          0          25         1         

[JUNCTIONS]
;;Junction       Invert     MaxDepth   InitDepth  SurDepth   Aponded   
;;-------------- ---------- ---------- ---------- ---------- ----------
J1               341        0          0          0          0         
J2               338        0          0          0          0         
J3               336        0          0          0          0         
J4               336        0          0          0          0         
J5               336        0          0          0          0         
J6               336        0          0          0          0         
J7               325        0          0          0          0         
J8               323        0          0          0          0         
J9               336        0          0          0          0         
J10              335        0          0          0          0         
J11              334        0          0          0          0         
J12              332        0          0          0          0         
J13              329        0          0          0          0         
J14              328        0          0          0          0         
J15              323        0          0          0          0         
J16              322        0          0          0          0         
J17              322        0          0          0          0         
J18              320        0          0          0          0         
J19              319        0          0          0          0         
J20              316        0          0          0          0         
J21              310        0          0          0          0         
J22              309        0          0          0          0         
J23              302        0          0          0          0         
J24              300        0          0          0          0         
J25              296        0          0          0          0         
J26              285        0          0          0          0         
J27              274        0          0          0          0         
J28              266        0          0          0          0         
J29              272        0          0          0          0         
J30              262        0          0          0          0         
J31              302        0          0          0          0         
J32              298        0          0          0          0         
J33              298        0          0          0          0         
J34              297        0          0          0          0         
J35              294        0          0          0          0         
J36              294        0          0          0          0         
J37              296        0          0          0          0         
J38              292        0          0          0          0         
J39              289        0          0          0          0         
J40              282        0          0          0          0         
j41              290        0          0          0          0         
J42              288        0          0          0          0         
J43              288        0          0          0          0         
J44              297        0          0          0          0         
J45              292        0          0          0          0         
J46              292        0          0          0          0         
J47              292        0          0          0          0         
J48              286        0          0          0          0         
J49              279        0          0          0          0         
J50              264        0          0          0          0         
J51              256        0          0          0          0         
J52              248        0          0          0          0         
J53              244        0          0          0          0         
J54              240        0          0          0          0         
J55              230        0          0          0          0         
J56              308        0          0          0          0         
J57              298        0          0          0          0         
J58              260        0          0          0          0         
J59              244        0          0          0          0         
J60              286        0          0          0          0         
J61              271        0          0          0          0         
J62              258        0          0          0          0         
J63              256        0          0          0          0         
J64              254        0          0          0          0         
J65              254        0          0          0          0         
J66              246        0          0          0          0         
J67              248        0          0          0          0         
J68              244        0          0          0          0         
J69              241        0          0          0          0         
J70              236        0          0          0          0         
J71              229        0          0          0          0         
J72              226        0          0          0          0         
J73              222        0          0          0          0         

[OUTFALLS]
;;Outfall        Invert     Type       Stage Data       Gated   
;;-------------- ---------- ---------- ---------------- --------
O1               224        FREE                        NO

[CONDUITS]
;;Conduit        From Node        To Node          Length     Roughness  InOffset   OutOffset  InitFlow   MaxFlow   
;;-------------- ---------------- ---------------- ---------- ---------- ---------- ---------- ---------- ----------
C1               J1               J2               172.30     0.013      0          0          0          0         
C2               J2               J3               169.07     0.013      0          0          0          0         
C3               J3               J4               21.39      0.013      0          0          0          0         
C4               J4               J5               26.98      0.013      0          0          0          0         
C5               J5               J6               18.09      0.013      0          0          0          0         
C6               J6               J7               234.28     0.013      0          0          0          0         
C7               J9               J10              41.96      0.013      0          0          0          0         
C8               J10              J11              66.55      0.013      0          0          0          0         
C9               J11              J12              106.97     0.013      0          0          0          0         
C10              J12              J13              220.61     0.013      0          0          0          0         
C11              J13              J14              38.07      0.013      0          0          0          0         
C12              J14              J15              493.18     0.013      0          0          0          0         
C13              J15              J8               19.35      0.013      0          0          0          0         
C14              J8               J16              19.35      0.013      0          0          0          0         
C15              J16              J17              35.23      0.013      0          0          0          0         
C16              J17              J18              91.59      0.01       0          0          0          0         
C18              J18              J19              54.35      0.013      0          0          0          0         
C17              J7               J8               162.51     0.013      0          0          0          0         
C19              J19              J20              251.30     0.013      0          0          0          0         
C20              J20              J21              476.01     0.013      0          0          0          0         
C21              J21              J22              63.15      0.013      0          0          0          0         
C22              J22              J23              435.17     0.013      0          0          0          0         
C23              J23              J24              98.49      0.013      0          0          0          0         
C24              J24              J25              342.05     0.016      0          0          0          0         
C25              J25              J26              245.09     0.013      0          0          0          0         
C26              J26              J27              436.16     0.013      0          0          0          0         
C27              J27              J28              588.17     0.013      0          0          0          0         
C28              J28              J29              134.47     0.01       0          0          0          0         
C29              J29              J30              219.19     0.013      0          0          0          0         
C30              J30              J52              322.79     0.05       0          0          0          0         
C31              J52              J53              175.11     0.05       0          0          0          0         
C32              J53              J54              209.38     0.05       0          0          0          0         
C33              J31              J32              159.47     0.013      0          0          0          0         
C34              J32              J33              87.89      0.013      0          0          0          0         
C35              J33              J34              68.23      0.013      0          0          0          0         
C36              J34              J35              230.22     0.013      0          0          0          0         
C37              J35              J36              44.93      0.015      0          0          0          0         
C38              J36              J37              72.93      0.013      0          0          0          0         
C39              J37              J38              363.64     0.013      0          0          0          0         
C40              J38              J39              65.74      0.013      0          0          0          0         
C41              J39              J40              171.58     0.013      0          0          0          0         
C42              J40              J43              346.94     0.05       0          0          0          0         
C43              j41              J42              154.96     0.013      0          0          0          0         
C44              J42              J43              250.87     0.05       0          0          0          0         
C45              J43              J51              791.69     0.05       0          0          0          0         
C46              J44              J45              345.10     0.013      0          0          0          0         
C47              J45              J46              128.48     0.016      0          0          0          0         
C48              J46              J47              383.71     0.024      0          0          0          0         
C49              J47              J48              248.34     0.013      0          0          0          0         
C50              J48              J49              328.11     0.013      0          0          0          0         
C51              J49              J50              42.74      0.013      0          0          0          0         
C52              J50              J51              379.82     0.05       0          0          0          0         
C53              J51              J53              783.75     0.05       0          0          0          0         
C54              J54              J55              1510.39    0.05       0          0          0          0         
C55              J56              J57              224        0.05       0          0          0          0         
C56              J57              J58              2178.48    0.05       0          0          0          0         
C57              J58              J59              660.99     0.05       0          0          0          0         
C58              J59              J70              625.00     0.05       0          0          0          0         
C59              J60              J61              275.89     0.05       0          0          0          0         
C60              J61              J62              362.96     0.05       0          0          0          0         
C61              J62              J63              123.38     0.013      0          0          0          0         
C62              J63              J64              115.78     0.03       0          0          0          0         
C63              J64              J65              100.21     0.01       0          0          0          0         
C64              J65              J66              127.12     0.013      0          0          0          0         
C65              J66              J67              105.49     0.013      0          0          0          0         
C66              J67              J68              53.17      0.013      0          0          0          0         
C67              J68              J69              3435.49    0.013      0          0          0          0         
C68              J69              J70              263.14     0.05       0          0          0          0         
C69              J70              J71              448.85     0.05       0          0          0          0         
C70              J71              J72              129.78     0.05       0          0          0          0         
C71              J55              J72              827.78     0.05       0          0          0          0         
C72              J72              J73              342.73     0.05       0          0          0          0         
C73              J73              O1               450.38     0.05       0          0          0          0         

[XSECTIONS]
;;Link           Shape        Geom1            Geom2      Geom3      Geom4      Barrels   
;;-------------- ------------ ---------------- ---------- ---------- ---------- ----------
C1               CIRCULAR     1.5              0          0          0          1                    
C2               CIRCULAR     2                0          0          0          1                    
C3               CIRCULAR     1.5              0          0          0          1                    
C4               CIRCULAR     1.5              0          0          0          1                    
C5               CIRCULAR     1.5              0          0          0          1                    
C6               CIRCULAR     1.5              0          0          0          1                    
C7               CIRCULAR     2                0          0          0          1                    
C8               CIRCULAR     2                0          0          0          1                    
C9               CIRCULAR     2                0          0          0          1                    
C10              CIRCULAR     2                0          0          0          1                    
C11              CIRCULAR     2                0          0          0          1                    
C12              CIRCULAR     2                0          0          0          1                    
C13              CIRCULAR     2                0          0          0          1                    
C14              CIRCULAR     2                0          0          0          1                    
C15              CIRCULAR     2                0          0          0          1                    
C16              CIRCULAR     1                0          0          0          1                    
C18              CIRCULAR     2                0          0          0          1                    
C17              CIRCULAR     1.5              0          0          0          1                    
C19              CIRCULAR     2                0          0          0          1                    
C20              CIRCULAR     4.5              0          0          0          1                    
C21              CIRCULAR     4                0          0          0          1                    
C22              CIRCULAR     4.5              0          0          0          1                    
C23              CIRCULAR     5                0          0          0          1                    
C24              RECT_OPEN    4                4          0          0          1                    
C25              CIRCULAR     4.5              0          0          0          1                    
C26              CIRCULAR     5                0          0          0          1                    
C27              CIRCULAR     5.5              0          0          0          1                    
C28              CIRCULAR     6                0          0          0          1                    
C29              CIRCULAR     6                0          0          0          1                    
C30              TRAPEZOIDAL  3                12         0.22       0.22       1                    
C31              TRAPEZOIDAL  3                12         0.22       0.22       1                    
C32              TRAPEZOIDAL  3                12         0.22       0.22       1                    
C33              CIRCULAR     2                0          0          0          1                    
C34              CIRCULAR     3                0          0          0          1                    
C35              CIRCULAR     3                0          0          0          1                    
C36              CIRCULAR     3                0          0          0          1                    
C37              RECT_OPEN    3                3          0          0          1                    